Mass spectrum: 1,3-dichlorobenzene; GC-EI-QIT; MS1; CE: 0; R=; [M+H]+
Name: 1,3-dichlorobenzene
Formula: C6H4Cl2
Exact mass: 145.9690
SMILES: ClC1=CC(Cl)=CC=C1
InChI: InChI=1S/C6H4Cl2/c7-5-2-1-3-6(8)4-5/h1-4H
Instrument: Q Exactive GC
Instrument type: GC-EI-QIT
Ms type: MS1
Ion mode: POSITIVE
Ionization: EI
Collision energy: 0
Retention time: 0.141 min
Base peak: 146.9763
Precursor m/z: 146.9763
Precursor type: [M+H]+
m/z	relative intensity
53.0022	1
54.9957	2
55.9941	1
60.984	2
61.0073	1
63.0229	1
71.9761	3
72.984	11
73.0073	8
73.9732	1
73.9825	3
74.0151	74
74.9811	2
75.0185	6
75.0229	149
76.0263	11
76.0308	6
83.9761	30
84.9795	1
84.984	29
85.9732	13
85.9873	1
85.9918	2
86.981	9
87.9888	1
93.0335	7
93.9372	1
94.0413	1
96.984	5
98.981	1
106.945	5
107.9761	5
108.9421	2
108.984	20
109.9732	2
109.9873	1
109.9918	21
110.981	5
110.9995	183
111.0441	2
111.9888	7
112.0029	12
112.9966	63
114	4
118.945	1
119.9528	2
120.942	1
121.9498	1
129.0101	14
130.0135	1
131.0072	5
139.0056	158
140.0028	1
140.0091	9
141.0027	54
142.0062	4
144.9605	1
145.9684	999
146.0008	1
146.9717	67
147.9654	586
147.9985	1
148.9688	49
149.9625	121
149.9722	1
150.9659	7
172.9668	3
174.9639	1
