Mass spectrum: 1,2,4-trimethylbenzene; GC-EI-QIT; MS1; CE: 0; R=; [M+H]+
Name: 1,2,4-trimethylbenzene
Formula: C9H12
Exact mass: 120.0939
SMILES: CC1=CC(C)=C(C)C=C1
InChI: InChI=1S/C9H12/c1-7-4-5-8(2)9(3)6-7/h4-6H,1-3H3
Instrument: Q Exactive GC
Instrument type: GC-EI-QIT
Ms type: MS1
Ion mode: POSITIVE
Ionization: EI
Collision energy: 0
Retention time: 0.123 min
Base peak: 121.1012
Precursor m/z: 121.1012
Precursor type: [M+H]+
m/z	relative intensity
51.0228	4
53.0384	1
57.5267	2
58.0306	3
62.0149	1
63.0227	5
65.0384	16
74.0149	1
75.0227	3
76.0305	4
77.0383	107
78.0417	7
78.0462	36
79.0495	2
79.0539	111
80.0573	9
87.0226	1
89.0383	13
90.0461	1
91.0539	119
92.0573	10
92.0618	4
93.0696	3
95.0488	3
102.0461	18
103.0494	1
103.0538	113
104.0572	13
104.0617	15
105.0444	7
105.0498	1
105.0605	1
105.0696	999
105.0793	1
106.0728	90
107.0762	4
114.0461	1
115.0538	83
116.0572	8
116.0617	5
117.0695	57
118.0728	5
118.0773	3
119.0851	121
120.0884	10
120.093	465
121.0963	52
122.0997	2
