Mass spectrum: 1,1,2,3,4,4-hexachloro-1,3-Butadiene; GC-EI-QIT; MS1; CE: 0; R=; [M+H]+
Name: 1,1,2,3,4,4-hexachloro-1,3-Butadiene
Name: Hexachlorobutadiene
Name: 1,1,2,3,4,4-hexachlorobuta-1,3-diene
Formula: C4Cl6
Exact mass: 257.8131
SMILES: ClC(Cl)=C(Cl)C(Cl)=C(Cl)Cl
InChI: InChI=1S/C4Cl6/c5-1(3(7)8)2(6)4(9)10
Instrument: Q Exactive GC
Instrument type: GC-EI-QIT
Ms type: MS1
Ion mode: POSITIVE
Ionization: EI
Collision energy: 0
Retention time: 0.188 min
Base peak: 258.8204
Precursor m/z: 258.8204
Precursor type: [M+H]+
m/z	relative intensity
50.1271	1
50.2068	1
50.4196	1
50.631	1
51.0593	1
51.2776	1
51.3412	1
51.5613	2
51.621	1
51.7798	1
51.8428	1
55.9586	3
56.2058	1
56.4579	3
59.9762	1
61.0074	1
66.0101	2
70.9683	25
71.9717	1
71.9761	7
72.9654	16
72.9747	1
72.984	7
73.0073	5
73.9732	1
74.0151	54
74.9811	2
75.0185	1
75.023	24
76.0263	2
79.0542	1
81.9372	24
82.945	1
82.9683	87
83.9342	16
83.9717	5
83.9761	32
84.9654	29
84.9794	1
84.9839	6
85.9312	2
85.9687	1
85.9732	11
86.9632	3
86.981	1
88.9602	1
89.9645	8
90.963	7
91.9615	2
93.9372	76
94.9357	19
95.9342	50
96.9327	2
96.9377	1
96.984	1
97.9313	6
99.971	3
101.9681	2
105.9372	78
106.9405	1
106.945	2
107.9342	51
107.9761	8
108.9376	2
108.942	2
108.984	97
109.9313	8
109.9732	3
109.9873	5
109.9918	5
110.9399	3
110.9745	21
110.981	34
111.9888	1
112.9369	1
112.9715	6
116.906	20
117.937	486
118.9031	22
118.9405	21
118.945	4
119.9341	332
119.9528	1
120.9001	6
120.9376	14
120.942	2
121.9312	54
121.9498	1
122.9346	1
122.9391	1
126.9945	2
128.0024	2
128.9059	16
128.9915	1
129.9045	24
130.9031	27
130.945	2
131.4047	1
131.9016	9
132.9	4
132.942	1
140.9034	2
140.9059	271
141.9094	9
142.903	273
142.945	3
143.9064	10
143.9528	16
144.9001	88
144.942	1
144.9606	29
145.9034	2
145.9498	8
145.9641	1
146.8971	9
146.9576	18
147.9469	1
147.9611	1
148.9548	2
152.9059	223
153.9093	8
154.903	221
155.9064	9
155.9108	1
156.9001	68
157.9034	2
158.8971	8
162.971	1
163.8748	17
163.9606	1
164.9682	1
165.8719	20
167.8689	9
169.866	1
172.9667	101
173.97	4
174.9638	69
175.9671	4
176.9609	10
179.9293	407
180.1142	1
180.9328	20
181.9263	377
182.9299	25
183.9235	136
184.9269	6
185.9206	14
187.8707	1
187.8747	414
188.8781	17
189.8716	527
190.8752	22
190.8794	1
191.8689	252
192.8724	10
193.866	59
194.8693	2
195.863	2
207.0323	1
222.8434	665
223.8471	29
224.778	1
224.8405	999
224.9015	1
225.7278	1
225.8441	44
226.8375	654
227.8412	27
228.8349	188
229.8383	8
230.832	31
231.8351	1
232.8286	1
257.8127	126
258.8161	6
259.8098	246
260.8132	8
261.8068	199
262.8102	10
263.8039	88
264.8073	2
265.8009	27
267.7979	1
